55_trigonal_bipyramidal_(radial).gzmat
 OpenBabel07242222353D

  6  5  0  0  0  0  0  0  0  0999 V2000
    0.0000    0.0000    0.0000 R0  0  0  0  0  0  0  0  0  0  0  0  0
    1.0000    0.0000    0.0000 H   0  0  0  0  0  0  0  0  0  0  0  0
    0.0000    0.0000   -1.0000 H   0  0  0  0  0  0  0  0  0  0  0  0
    0.0000   -0.8660    0.5000 R1  0  0  0  0  0  0  0  0  0  0  0  0
    0.0000    0.8660    0.5000 H   0  0  0  0  0  0  0  0  0  0  0  0
   -1.0000    0.0000   -0.0000 H   0  0  0  0  0  0  0  0  0  0  0  0
  1  2  1  0  0  0  0
  1  4  1  0  0  0  0
  1  5  1  0  0  0  0
  3  1  1  0  0  0  0
  6  1  1  0  0  0  0
M  END
$$$$
